
 OpenBabel03191815023D

 15 16  0  0  0  0  0  0  0  0999 V2000
   36.3110   -7.6770   -7.2620 C   0  0  0  0  0
   37.4910   -7.2770   -8.0400 N   0  0  0  0  0
   38.1320   -8.3530   -8.8160 C   0  0  0  0  0
   39.0020   -9.2300   -7.9630 C   0  0  0  0  0
   38.6760  -10.0100   -6.8790 C   0  0  0  0  0
   39.8620  -10.6250   -6.4630 C   0  0  0  0  0
   40.8680  -10.2590   -7.2680 N   0  0  0  0  0
   40.3300   -9.4070   -8.1720 N   0  0  0  0  0
   41.1960   -8.8240   -9.1910 C   0  0  0  0  0
   40.0960  -11.5820   -5.3690 C   0  0  0  0  0
   39.0940  -12.4620   -4.9660 C   0  0  0  0  0
   39.3210  -13.3770   -3.9500 C   0  0  0  0  0
   40.5510  -13.4360   -3.3300 C   0  0  0  0  0
   41.5560  -12.5790   -3.7220 C   0  0  0  0  0
   41.3370  -11.6610   -4.7370 C   0  0  0  0  0
  1  2  1  0  0  0
  2  3  1  0  0  0
  3  4  1  0  0  0
  4  5  2  0  0  0
  4  8  1  0  0  0
  5  6  1  0  0  0
  6  7  2  0  0  0
  6 10  1  0  0  0
  7  8  1  0  0  0
  8  9  1  0  0  0
 10 11  2  0  0  0
 10 15  1  0  0  0
 11 12  1  0  0  0
 12 13  2  0  0  0
 13 14  1  0  0  0
 14 15  2  0  0  0
M  END
